%chk=C:\Users\xiangru\Desktop\MatlabCode\Project_FFopt\C2H6.chk
# uff geom=connectivity

Title Card Required

0 1
 C              0.05738881   -0.72453371    0.00000000
 H              0.41404323   -1.73334371    0.00000000
 H               0.41406165   -0.22013552   -0.87365150
 H             -1.01261119   -0.72452052    0.00000000
 C             0.57073103    0.00142257    1.25740497
 H              0.21567468    1.01079566    1.25642745
 H               0.21246192   -0.50184586    2.13105486
 H               1.64072922   -0.00028412    1.25838372

 1 2 1.0 3 1.0 4 1.0 5 1.0
 2
 3
 4
 5 6 1.0 7 1.0 8 1.0
 6
 7
 8

